[General]
network = simulations.HCCNetwork
sim-time-limit = 100s


*.visualizer.mediumVisualizer.displaySignals = false
*.visualizer.mediumVisualizer.displayCommunicationRanges = true
*.visualizer.physicalLinkVisualizer.displayLinks = true

*.host[*].mobility.typename = "RandomWaypointMobility"

*.host[*].mobility.initFromDisplayString = false


*.host[*].mobility.speed = uniform(15mps, 25mps)
*.host[*].mobility.waitTime = uniform(1s, 5s) 


*.host[*].mobility.constraintAreaMinX = 0m
*.host[*].mobility.constraintAreaMinY = 0m
*.host[*].mobility.constraintAreaMinZ = 0m
*.host[*].mobility.constraintAreaMaxX = 1000m
*.host[*].mobility.constraintAreaMaxY = 1000m
*.host[*].mobility.constraintAreaMaxZ = 0m #



*.host[*].numApps = 1
*.host[*].app[0].typename = "src.HCCApp"

*.host[*].app[0].beaconInterval = 1s
*.host[*].app[0].neighborValidityInterval = 4s
*.host[*].app[0].localPort = 5000
*.host[*].app[0].destPort = 5000


*.host[*].wlan[0].typename = "Ieee80211Interface"
*.host[*].wlan[0].radio.transmitter.power = 2mW     

*.configurator.config = xml("<config><interface hosts='*' address='10.0.0.x' netmask='255.255.255.0'/><multicast-group hosts='*' address='224.0.0.1'/></config>")